# avogadro generated ORCA input file 
# Basic Mode
# 
! HF OPT 6-31g(d) LargePrint 

* xyz 0 1
   C       -0.52252       -0.01637        0.00000
   F        0.54748       -0.01637        0.00000
   F       -0.87919       -0.09087        1.00605
   F       -0.87919       -0.85038       -0.56755
   F       -0.87919        0.89215       -0.43850
*

